Info: SIMULATION PARAMETERS:
Info: TIMESTEP               2
Info: NUMBER OF STEPS        125000
Info: STEPS PER CYCLE        20
Info: PERIODIC CELL BASIS 1  73.7289 0 0
Info: PERIODIC CELL BASIS 2  0 68.3819 0
Info: PERIODIC CELL BASIS 3  0 0 84.6835
Info: PERIODIC CELL CENTER   39.2552 37.1108 45.8817
Info: WRAPPING WATERS AROUND PERIODIC BOUNDARIES ON OUTPUT.
Info: WRAPPING ALL CLUSTERS AROUND PERIODIC BOUNDARIES ON OUTPUT.
Info: WRAPPING TO IMAGE NEAREST TO PERIODIC CELL CENTER.
Info: FIRST LDB TIMESTEP     100
Info: LAST LDB TIMESTEP     -1
Info: HOM BACKGROUND SCALING 1
Info: PME BACKGROUND SCALING 1
Info: MIN ATOMS PER PATCH    40
Info: VELOCITY FILE          system-hc_eq_8.vel
Info: CENTER OF MASS MOVING INITIALLY? NO
Info: DIELECTRIC             1
Info: EXCLUDE                SCALED ONE-FOUR
Info: 1-4 ELECTROSTATICS SCALED BY 0.833333
Info: MODIFIED 1-4 VDW PARAMETERS WILL BE USED
Info: DCD FILENAME           system-hc_eq_9.dcd
Info: DCD FREQUENCY          5000
Info: DCD FIRST STEP         5000
Info: DCD FILE WILL CONTAIN UNIT CELL DATA
Info: XST FILENAME           system-hc_eq_9.xst
Info: XST FREQUENCY          10000
Info: NO VELOCITY DCD OUTPUT
Info: NO FORCE DCD OUTPUT
Info: OUTPUT FILENAME        system-hc_eq_9
Info: BINARY OUTPUT FILES WILL BE USED
Info: RESTART FILENAME       system-hc_eq_9.restart
Info: RESTART FREQUENCY      5000
Info: BINARY RESTART FILES WILL BE USED
Info: SWITCHING ACTIVE
Info: SWITCHING ON           12
Info: SWITCHING OFF          14
Info: PAIRLIST DISTANCE      16
Info: PAIRLIST SHRINK RATE   0.01
Info: PAIRLIST GROW RATE     0.01
Info: PAIRLIST TRIGGER       0.3
Info: PAIRLISTS PER CYCLE    2
Info: PAIRLISTS ENABLED
Info: MARGIN                 1
Info: HYDROGEN GROUP CUTOFF  2.5
Info: PATCH DIMENSION        19.5
Info: ENERGY OUTPUT STEPS    500
Info: CROSSTERM ENERGY INCLUDED IN DIHEDRAL
Info: TIMING OUTPUT STEPS    5000
Info: LANGEVIN DYNAMICS ACTIVE
Info: LANGEVIN TEMPERATURE   310
Info: LANGEVIN USING BBK INTEGRATOR
Info: LANGEVIN DAMPING COEFFICIENT IS 5 INVERSE PS
Info: LANGEVIN DYNAMICS NOT APPLIED TO HYDROGENS
Info: LANGEVIN PISTON PRESSURE CONTROL ACTIVE
Info:        TARGET PRESSURE IS 1.01325 BAR
Info:     OSCILLATION PERIOD IS 100 FS
Info:             DECAY TIME IS 50 FS
Info:     PISTON TEMPERATURE IS 310 K
Info:       PRESSURE CONTROL IS GROUP-BASED
Info:    INITIAL STRAIN RATE IS 7.34641e-06 7.34641e-06 7.34641e-06
Info:       CELL FLUCTUATION IS ISOTROPIC
Info: PARTICLE MESH EWALD (PME) ACTIVE
Info: PME TOLERANCE               1e-06
Info: PME EWALD COEFFICIENT       0.219398
Info: PME INTERPOLATION ORDER     4
Info: PME GRID DIMENSIONS         90 90 90
Info: PME MAXIMUM GRID SPACING    1.5
Info: FULL ELECTROSTATIC EVALUATION FREQUENCY      2
Info: USING VERLET I (r-RESPA) MTS SCHEME.
Info: C1 SPLITTING OF LONG RANGE ELECTROSTATICS
Info: PLACING ATOMS IN PATCHES BY HYDROGEN GROUPS
Info: RIGID BONDS TO HYDROGEN : ALL
Info:         ERROR TOLERANCE : 0.0005
Info:          MAX ITERATIONS : 100
Info: RIGID WATER USING SETTLE ALGORITHM
Info: NONBONDED FORCES EVALUATED EVERY 2 STEPS
Info: RANDOM NUMBER SEED     1518025389
Info: USE HYDROGEN BONDS?    NO
Info: Using AMBER format force field!
Info: AMBER PARM FILE        mol.prmtop
Info: AMBER COORDINATE FILE  mol.inpcrd
Info: Exclusions will be read from PARM file!
Info: SCNB (VDW SCALING)     2
Info: USING ARITHMETIC MEAN TO COMBINE L-J SIGMA PARAMETERS
Info: BINARY COORDINATES     system-hc_eq_8.coor
Info: SUMMARY OF PARAMETERS:
Info: 72 BONDS
Info: 163 ANGLES
Info:   163 HARMONIC
Info:   0 COSINE-BASED
Info: 215 DIHEDRAL
Info: 0 IMPROPER
Info: 0 CROSSTERM
Info: 0 VDW
Info: 171 VDW_PAIRS
Info: 0 NBTHOLE_PAIRS
Info: STRUCTURE SUMMARY:
Info: 42338 ATOMS
Info: 42371 BONDS
Info: 10490 ANGLES
Info: 26419 DIHEDRALS
Info: 0 IMPROPERS
Info: 0 CROSSTERMS
Info: 68002 EXCLUSIONS
Info: 39317 RIGID BONDS
Info: 87697 DEGREES OF FREEDOM
Info: 15198 HYDROGEN GROUPS
Info: 4 ATOMS IN LARGEST HYDROGEN GROUP
Info: 15198 MIGRATION GROUPS
Info: 4 ATOMS IN LARGEST MIGRATION GROUP
Info: TOTAL MASS = 263176 amu
Info: TOTAL CHARGE = -1.2462e-05 e
Info: MASS DENSITY = 1.02359 g/cm^3
Info: ATOM DENSITY = 0.0991636 atoms/A^3
Info: ADDED 0 IMPLICIT EXCLUSIONS
Info: NONBONDED TABLE R-SQUARED SPACING: 0.0625
Info: NONBONDED TABLE SIZE: 769 POINTS
Info: REMOVING COM VELOCITY 0.0332397 0.049834 0.00421825
ETITLE: TS BOND ANGLE DIHED IMPRP ELECT VDW BOUNDARY MISC KINETIC TOTAL TEMP POTENTIAL TOTAL3 TEMPAVG PRESSURE GPRESSURE VOLUME PRESSAVG GPRESSAVG
ENERGY: 0 1094.5963 2978.3344 4842.2339 0.0000 -152098.4229 15078.7113 0.0000 0.0000 26653.3502 -101451.1969 305.8845 -128104.5471 -101207.7404 305.8845 -18547.6233 16.9788 426950.8396 -18547.6233 16.9788
ENERGY: 25000 1182.7950 2969.5314 4886.7012 0.0000 -152261.2508 15164.0963 0.0000 0.0000 26551.6127 -101506.5141 304.7169 -128058.1268 -101263.6857 307.9487 -18419.8514 91.5214 427956.1963 4.5394 4.3171
ENERGY: 50000 1176.2439 3006.6478 4854.7063 0.0000 -152455.5414 14966.0635 0.0000 0.0000 26553.9332 -101897.9466 304.7435 -128451.8799 -101659.9129 308.4571 -18740.7020 -55.4319 425371.3869 -0.7815 -1.0540
ENERGY: 75000 1204.1701 2940.1188 4863.6682 0.0000 -152336.4950 15090.7322 0.0000 0.0000 26728.9606 -101508.8450 306.7522 -128237.8056 -101260.1289 310.7078 -18821.3122 -219.9631 426496.3338 -0.7767 -0.6087
ENERGY: 100000 1152.4043 3010.2659 4866.5258 0.0000 -152061.6854 14834.2724 0.0000 0.0000 26758.1479 -101440.0691 307.0872 -128198.2169 -101196.1934 309.6501 -18587.0219 -28.5371 426260.9268 3.6163 3.8951
ENERGY: 125000 1229.5324 2980.8072 4805.4440 0.0000 -152140.3928 15007.5216 0.0000 0.0000 26755.2719 -101361.8157 307.0542 -128117.0876 -101130.6168 310.2329 -18679.3422 -85.5355 425909.2992 1.1721 0.7442
